Version 4.1
SHEET 1 880 680
WIRE 144 -32 48 -32
WIRE 288 -32 224 -32
WIRE 160 112 160 64
WIRE -96 128 -160 128
WIRE 48 128 48 -32
WIRE 48 128 -16 128
WIRE 128 128 48 128
WIRE 288 144 288 -32
WIRE 288 144 192 144
WIRE 128 160 80 160
WIRE -160 176 -160 128
WIRE 80 192 80 160
WIRE 160 240 160 176
FLAG 640 -64 0
FLAG 752 -64 0
FLAG 640 -144 Vdd
FLAG 752 -144 Vss
FLAG 160 64 Vdd
FLAG 160 240 Vss
FLAG 80 192 0
FLAG -160 256 0
SYMBOL voltage 640 -160 R0
SYMATTR InstName V2
SYMATTR Value 15
SYMBOL voltage 752 -160 R0
SYMATTR InstName V3
SYMATTR Value -15
SYMBOL OpAmps\\OP07 160 80 R0
SYMATTR InstName U1
SYMBOL res 240 -48 R90
WINDOW 0 0 56 VBottom 2
WINDOW 3 32 56 VTop 2
SYMATTR InstName R1
SYMATTR Value 10k
SYMBOL res 0 112 R90
WINDOW 0 0 56 VBottom 2
WINDOW 3 32 56 VTop 2
SYMATTR InstName R2
SYMATTR Value 1k
SYMBOL voltage -160 160 R0
SYMATTR InstName V1
SYMATTR Value 1m
TEXT -128 456 Left 2 !.tran 10
