Version 4.1
SHEET 1 880 680
WIRE 320 128 240 128
WIRE -80 144 -128 144
WIRE 192 160 -16 160
WIRE -80 176 -144 176
WIRE 240 192 240 176
WIRE 320 192 320 128
WIRE 320 192 240 192
WIRE 240 256 240 192
WIRE -144 368 -144 176
WIRE 240 368 240 336
WIRE 240 368 -144 368
WIRE 240 400 240 368
WIRE 240 512 240 480
FLAG 240 80 Vin
FLAG -128 144 Vref
FLAG 240 512 0
FLAG -48 128 V
FLAG -48 192 -V
FLAG 720 128 0
FLAG 624 128 0
FLAG 528 128 0
FLAG 528 48 V
FLAG 624 48 -V
FLAG 720 48 Vin
SYMBOL pmos4 192 80 R0
SYMATTR InstName M1
SYMATTR Value PMOS1
SYMATTR Value2 l=1u w=10u
SYMBOL OpAmps\\UniversalOpAmp2 -48 160 R0
SYMATTR InstName U1
SYMBOL res 224 240 R0
SYMATTR InstName R1
SYMATTR Value {R}
SYMBOL res 224 384 R0
SYMATTR InstName R2
SYMATTR Value 15k
SYMBOL voltage 528 32 R0
SYMATTR InstName V1
SYMATTR Value 5
SYMBOL voltage 624 32 R0
SYMATTR InstName V2
SYMATTR Value -5
SYMBOL voltage 720 32 R0
SYMATTR InstName V3
SYMATTR Value 10.75
TEXT -176 576 Left 2 !.model PMOS1 pmos(vto=0.7 kp=1e-6 lambda=0)
TEXT -176 608 Left 2 !.step param R 15k 35k 5k
TEXT -184 632 Left 2 !.tran 1
