Version 4.1
SHEET 1 1320 680
WIRE 496 -128 432 -128
WIRE 656 -128 576 -128
WIRE 432 -16 432 -128
WIRE 512 -16 432 -16
WIRE 656 -16 656 -128
WIRE 656 -16 576 -16
WIRE 96 80 96 32
WIRE 64 96 -96 96
WIRE 544 96 544 80
WIRE 272 112 128 112
WIRE 304 112 272 112
WIRE 432 112 432 -16
WIRE 432 112 384 112
WIRE 512 112 432 112
WIRE -96 128 -96 96
WIRE 64 128 -16 128
WIRE 656 128 656 -16
WIRE 656 128 576 128
WIRE 512 144 432 144
WIRE 96 192 96 144
WIRE 432 192 432 144
WIRE 544 208 544 160
WIRE -16 240 -16 128
WIRE 96 240 -16 240
WIRE 272 240 272 112
WIRE 272 240 176 240
WIRE -16 336 -16 240
WIRE 224 336 -16 336
WIRE 656 336 656 128
WIRE 656 336 304 336
FLAG -96 128 0
FLAG 432 272 0
FLAG 1056 -144 0
FLAG 1200 -144 0
FLAG 1056 -224 Vdd
FLAG 96 32 Vdd
FLAG 544 80 Vdd
FLAG 1200 -224 -Vdd
FLAG 544 208 -Vdd
FLAG 96 192 -Vdd
SYMBOL OpAmps\\OP1177 96 48 R0
SYMATTR InstName U1
SYMBOL OpAmps\\OP1177 544 64 R0
SYMATTR InstName U2
SYMBOL res 192 224 R90
WINDOW 0 0 56 VBottom 2
WINDOW 3 32 56 VTop 2
SYMATTR InstName R1
SYMATTR Value 1k
SYMBOL res 320 320 R90
WINDOW 0 0 56 VBottom 2
WINDOW 3 32 56 VTop 2
SYMATTR InstName R2
SYMATTR Value 1k
SYMBOL res 400 96 R90
WINDOW 0 0 56 VBottom 2
WINDOW 3 32 56 VTop 2
SYMATTR InstName R
SYMATTR Value 222.2
SYMBOL cap 576 -32 R90
WINDOW 0 0 32 VBottom 2
WINDOW 3 32 32 VTop 2
SYMATTR InstName C
SYMATTR Value 100n
SYMBOL voltage 432 176 R0
SYMATTR InstName V1
SYMATTR Value 1.5
SYMBOL res 592 -144 R90
WINDOW 0 0 56 VBottom 2
WINDOW 3 32 56 VTop 2
SYMATTR InstName R4
SYMATTR Value 100k
SYMBOL voltage 1056 -240 R0
SYMATTR InstName V2
SYMATTR Value 4.5
SYMBOL voltage 1200 -240 R0
SYMATTR InstName V3
SYMATTR Value -4.5
TEXT -112 392 Left 2 !.tran 0 1001m 1000m
