Version 4.1
SHEET 1 1740 680
WIRE -64 -32 -64 -112
WIRE -64 80 -64 48
WIRE 176 80 -64 80
WIRE 288 96 240 96
WIRE 176 112 144 112
WIRE 144 144 144 112
WIRE 288 160 288 96
WIRE 320 160 288 160
WIRE 432 160 384 160
WIRE -64 176 -64 80
WIRE 320 176 288 176
WIRE 432 192 432 160
WIRE 496 192 432 192
WIRE 752 192 752 48
WIRE 752 192 592 192
WIRE 128 240 112 240
WIRE 288 240 288 176
WIRE 288 240 192 240
WIRE 496 240 432 240
WIRE 656 240 608 240
WIRE 288 272 288 240
WIRE 176 336 128 336
WIRE 352 336 288 336
WIRE 432 336 432 240
WIRE 432 336 416 336
WIRE 352 352 240 352
WIRE -64 368 -64 256
WIRE 176 368 -64 368
WIRE -64 432 -64 368
WIRE -64 576 -64 512
FLAG -64 576 0
FLAG 208 320 V
FLAG 208 64 V
FLAG 208 128 -V
FLAG 208 384 -V
FLAG 144 144 0
FLAG 128 336 Trig
FLAG 112 240 rst
FLAG 816 96 0
FLAG 816 0 discharge
FLAG 656 240 Output
IOPIN 656 240 Out
FLAG -64 -112 V
FLAG 1104 0 0
FLAG 1200 0 0
FLAG 1312 0 0
FLAG 1104 -80 V
FLAG 1200 -80 -V
FLAG 1312 -80 Trig
FLAG 1200 112 rst
FLAG 1200 192 0
SYMBOL OpAmps\\UniversalOpAmp2 208 96 R0
SYMATTR InstName U1
SYMBOL OpAmps\\UniversalOpAmp2 208 352 R0
SYMATTR InstName U2
SYMBOL res -80 -48 R0
SYMATTR InstName R1
SYMATTR Value 5k
SYMBOL res -80 160 R0
SYMATTR InstName R2
SYMATTR Value 5k
SYMBOL res -80 416 R0
SYMATTR InstName R3
SYMATTR Value 5k
SYMBOL Digital\\srflop 544 144 R0
SYMATTR InstName A1
SYMBOL Digital\\or 352 112 R0
SYMATTR InstName A2
SYMBOL Digital\\inv 128 176 R0
SYMATTR InstName A3
SYMBOL Digital\\inv 352 272 R90
SYMATTR InstName A4
SYMBOL Digital\\and 384 288 R0
SYMATTR InstName A5
SYMBOL npn 752 0 R0
SYMATTR InstName Q1
SYMBOL voltage 1104 -96 R0
SYMATTR InstName V1
SYMATTR Value 15
SYMBOL voltage 1200 -96 R0
SYMATTR InstName V2
SYMATTR Value -15
SYMBOL voltage 1312 -96 R0
WINDOW 123 0 0 Left 0
WINDOW 39 0 0 Left 0
SYMATTR InstName V3
SYMATTR Value PULSE(5 0 0.5m 1n 1n 200u 1m 3)
SYMBOL voltage 1200 96 R0
WINDOW 123 0 0 Left 0
WINDOW 39 0 0 Left 0
SYMATTR InstName V4
SYMATTR Value PULSE(5 0 0 1n 1n 200u 1m 3)
TEXT -88 600 Left 2 !.tran 5m
