Version 4.1
SHEET 1 1228 680
WIRE 384 48 384 -32
WIRE 464 96 384 96
WIRE 144 112 112 112
WIRE 336 128 208 128
WIRE 144 144 96 144
WIRE 464 144 464 96
WIRE 464 144 384 144
WIRE 384 192 384 144
WIRE 464 192 384 192
WIRE 96 304 96 144
WIRE 384 304 384 272
WIRE 384 304 96 304
WIRE 384 336 384 304
FLAG 176 160 V
FLAG 176 96 -V
FLAG 384 416 0
FLAG 112 112 Vref
FLAG 464 192 Output
IOPIN 464 192 Out
FLAG 768 96 0
FLAG 880 96 0
FLAG 992 96 0
FLAG 768 16 V
FLAG 880 16 -V
FLAG 992 16 Vref
FLAG 1120 96 0
FLAG 1120 16 Vin
FLAG 384 -32 Vin
SYMBOL OpAmps\\UniversalOpAmp2 176 128 M180
SYMATTR InstName U1
SYMBOL nmos4 336 48 R0
SYMATTR InstName M1
SYMATTR Value2 l=1u w=10u
SYMBOL res 368 176 R0
SYMATTR InstName R1
SYMATTR Value {R}
SYMBOL res 368 320 R0
SYMATTR InstName R2
SYMATTR Value 3k
SYMBOL voltage 768 0 R0
SYMATTR InstName V1
SYMATTR Value 15
SYMBOL voltage 880 0 R0
SYMATTR InstName V2
SYMATTR Value -15
SYMBOL voltage 992 0 R0
SYMATTR InstName V3
SYMATTR Value 3
SYMBOL voltage 1120 0 R0
SYMATTR InstName V4
SYMATTR Value 17.024
TEXT 72 488 Left 2 !.model M1 nmos(vto=0.7 kp=1e-6 lambda=0)
TEXT 48 512 Left 2 !.tran 1m
TEXT 56 544 Left 2 !.step param R 3k 7k 1k
